*SPICE_MODEL
*AUTOR=FTI
*DATE=19.03.2019
*VERSION=1

*PINS ORDER A K

.SUBCKT WP7113ID 2 1
D1 1 2 WP7113ID
.MODEL WP7113ID D
+ IS=-1.5069317564442968e-32
+ RS=-23.17210011115189
+ N=0.9338932627845221
.ENDS